<?xml version="1.0" encoding="UTF-8"?>
<configuration xmlns:xsi="http://www.w3.org/2001/XMLSchema-instance" xsi:noNamespaceSchemaLocation="http://sumo.dlr.de/xsd/netconvertConfiguration.xsd">
    <input>
        <node-files value="marathalli_etv.nod.xml" />
        <edge-files value="marathalli_etv.edg.xml" />
    </input>
    <output>
        <output-file value="marathalli_etv.net.xml" />
    </output>
</configuration>
