<?xml version="1.0" encoding="UTF-8"?>
<nodes xmlns:xsi="http://www.w3.org/2001/XMLSchema-instance" xsi:noNamespaceSchemaLocation="http://sumo.dlr.de/xsd/nodes_file.xsd">
    <node id="marathalli" x="0.00" y="0.00" type="priority" />
    <node id="whitefield" x="5000.00" y="1500.00" type="priority" />
    <node id="silk_board" x="8500.00" y="3200.00" type="priority" />
    <node id="etv_junction" x="11000.00" y="4500.00" type="priority" />
    <node id="marathalli_ped" x="-100.0" y="-50.0" type="dead_end" />
    <node id="whitefield_ped" x="5000.0" y="1400.0" type="dead_end" />
    <node id="silk_ped" x="8400.0" y="3200.0" type="dead_end" />
</nodes>
