<?xml version="1.0" encoding="UTF-8"?>

<!-- generated on 2026-05-26T13:42:44.990261+05:30 by Eclipse SUMO netconvert v1_26_0+1635-a3affc3bcfe
<netconvertConfiguration xmlns:xsi="http://www.w3.org/2001/XMLSchema-instance" xsi:noNamespaceSchemaLocation="http://sumo.dlr.de/xsd/netconvertConfiguration.xsd">

    <input>
        <node-files value="marathalli_etv.nod.xml"/>
        <edge-files value="marathalli_etv.edg.xml"/>
    </input>

    <output>
        <output-file value="marathalli_etv.net.xml"/>
    </output>

</netconvertConfiguration>
-->

<net version="1.20" junctionCornerDetail="5" limitTurnSpeed="5.50" xmlns:xsi="http://www.w3.org/2001/XMLSchema-instance" xsi:noNamespaceSchemaLocation="http://sumo.dlr.de/xsd/net_file.xsd">

    <location netOffset="100.00,50.00" convBoundary="0.00,0.00,11100.00,4550.00" origBoundary="-100.00,-50.00,11000.00,4500.00" projParameter="!"/>

    <edge id=":etv_junction_0" function="internal">
        <lane id=":etv_junction_0_0" index="0" speed="3.65" length="4.67" shape="11100.74,4548.58 11101.43,4549.84 11101.42,4550.74 11100.70,4551.26 11099.26,4551.42"/>
    </edge>
    <edge id=":marathalli_0" function="internal">
        <lane id=":marathalli_0_0" index="0" speed="3.65" length="4.67" shape="100.27,51.75 99.35,50.64 99.20,49.76 99.81,49.11 101.19,48.69"/>
    </edge>
    <edge id=":silk_board_0" function="internal">
        <lane id=":silk_board_0_0" index="0" speed="11.00" length="18.44" shape="8587.41,3252.47 8570.79,3244.71"/>
        <lane id=":silk_board_0_1" index="1" speed="11.00" length="18.44" shape="8588.89,3249.63 8572.19,3241.83"/>
        <lane id=":silk_board_0_2" index="2" speed="11.00" length="18.44" shape="8590.37,3246.79 8573.58,3238.95"/>
    </edge>
    <edge id=":silk_board_3" function="internal">
        <lane id=":silk_board_3_0" index="0" speed="11.00" length="18.70" shape="8577.78,3230.31 8594.80,3238.28"/>
        <lane id=":silk_board_3_1" index="1" speed="11.00" length="18.70" shape="8576.38,3233.19 8593.32,3241.12"/>
        <lane id=":silk_board_3_2" index="2" speed="11.00" length="18.70" shape="8574.98,3236.07 8591.84,3243.96"/>
    </edge>
    <edge id=":whitefield_0" function="internal">
        <lane id=":whitefield_0_0" index="0" speed="13.50" length="9.22" shape="5098.55,1558.19 5096.20,1557.14 5094.52,1556.57 5092.80,1556.13 5090.31,1555.44"/>
        <lane id=":whitefield_0_1" index="1" speed="13.50" length="9.22" shape="5099.95,1555.31 5097.46,1554.19 5095.69,1553.59 5093.87,1553.11 5091.23,1552.38"/>
        <lane id=":whitefield_0_2" index="2" speed="13.50" length="9.22" shape="5101.35,1552.43 5098.72,1551.25 5096.85,1550.60 5094.93,1550.09 5092.14,1549.31"/>
    </edge>
    <edge id=":whitefield_3" function="internal">
        <lane id=":whitefield_3_0" index="0" speed="13.50" length="10.77" shape="5094.90,1540.12 5098.13,1541.03 5100.34,1541.64 5102.50,1542.41 5105.54,1543.80"/>
        <lane id=":whitefield_3_1" index="1" speed="13.50" length="10.77" shape="5093.98,1543.18 5097.06,1544.05 5099.18,1544.63 5101.24,1545.36 5104.14,1546.68"/>
        <lane id=":whitefield_3_2" index="2" speed="13.50" length="10.77" shape="5093.06,1546.25 5096.00,1547.07 5098.02,1547.61 5099.98,1548.30 5102.74,1549.55"/>
    </edge>

    <edge id="etv_silk" from="etv_junction" to="silk_board" priority="10">
        <lane id="etv_silk_0" index="0" speed="10.00" length="2827.83" shape="11096.31,4557.10 8587.41,3252.47"/>
        <lane id="etv_silk_1" index="1" speed="10.00" length="2827.83" shape="11097.79,4554.26 8588.89,3249.63"/>
        <lane id="etv_silk_2" index="2" speed="10.00" length="2827.83" shape="11099.26,4551.42 8590.37,3246.79"/>
    </edge>
    <edge id="marathalli_ped_in" from="marathalli_ped" to="marathalli" priority="-1">
        <lane id="marathalli_ped_in_0" index="0" allow="pedestrian" speed="1.40" length="111.04" shape="0.72,-1.43 100.04,48.23"/>
    </edge>
    <edge id="marathalli_ped_out" from="marathalli" to="marathalli_ped" priority="-1">
        <lane id="marathalli_ped_out_0" index="0" allow="pedestrian" speed="1.40" length="111.04" shape="98.60,51.09 -0.72,1.43"/>
    </edge>
    <edge id="marathalli_whitefield" from="marathalli" to="whitefield" priority="10">
        <lane id="marathalli_whitefield_0" index="0" speed="15.00" length="5211.67" shape="103.03,42.56 5094.90,1540.12"/>
        <lane id="marathalli_whitefield_1" index="1" speed="15.00" length="5211.67" shape="102.11,45.62 5093.98,1543.18"/>
        <lane id="marathalli_whitefield_2" index="2" speed="15.00" length="5211.67" shape="101.19,48.69 5093.06,1546.25"/>
    </edge>
    <edge id="silk_etv" from="silk_board" to="etv_junction" priority="10">
        <lane id="silk_etv_0" index="0" speed="10.00" length="2827.83" shape="8594.80,3238.28 11103.69,4542.90"/>
        <lane id="silk_etv_1" index="1" speed="10.00" length="2827.83" shape="8593.32,3241.12 11102.21,4545.74"/>
        <lane id="silk_etv_2" index="2" speed="10.00" length="2827.83" shape="8591.84,3243.96 11100.74,4548.58"/>
    </edge>
    <edge id="silk_ped_in" from="silk_ped" to="silk_board" priority="-1">
        <lane id="silk_ped_in_0" index="0" allow="pedestrian" speed="1.40" length="69.94" shape="8500.00,3248.40 8569.94,3248.40"/>
    </edge>
    <edge id="silk_ped_out" from="silk_board" to="silk_ped" priority="-1">
        <lane id="silk_ped_out_0" index="0" allow="pedestrian" speed="1.40" length="69.94" shape="8569.94,3251.60 8500.00,3251.60"/>
    </edge>
    <edge id="silk_whitefield" from="silk_board" to="whitefield" priority="10">
        <lane id="silk_whitefield_0" index="0" speed="12.00" length="3860.15" shape="8570.79,3244.71 5098.55,1558.19"/>
        <lane id="silk_whitefield_1" index="1" speed="12.00" length="3860.15" shape="8572.19,3241.83 5099.95,1555.31"/>
        <lane id="silk_whitefield_2" index="2" speed="12.00" length="3860.15" shape="8573.58,3238.95 5101.35,1552.43"/>
    </edge>
    <edge id="whitefield_marathalli" from="whitefield" to="marathalli" priority="10">
        <lane id="whitefield_marathalli_0" index="0" speed="15.00" length="5211.67" shape="5090.31,1555.44 98.43,57.88"/>
        <lane id="whitefield_marathalli_1" index="1" speed="15.00" length="5211.67" shape="5091.23,1552.38 99.35,54.82"/>
        <lane id="whitefield_marathalli_2" index="2" speed="15.00" length="5211.67" shape="5092.14,1549.31 100.27,51.75"/>
    </edge>
    <edge id="whitefield_ped_in" from="whitefield_ped" to="whitefield" priority="-1">
        <lane id="whitefield_ped_in_0" index="0" allow="pedestrian" speed="1.40" length="87.52" shape="5101.60,1450.00 5101.60,1537.52"/>
    </edge>
    <edge id="whitefield_ped_out" from="whitefield" to="whitefield_ped" priority="-1">
        <lane id="whitefield_ped_out_0" index="0" allow="pedestrian" speed="1.40" length="87.52" shape="5098.40,1537.52 5098.40,1450.00"/>
    </edge>
    <edge id="whitefield_silk" from="whitefield" to="silk_board" priority="10">
        <lane id="whitefield_silk_0" index="0" speed="12.00" length="3860.15" shape="5105.54,1543.80 8577.78,3230.31"/>
        <lane id="whitefield_silk_1" index="1" speed="12.00" length="3860.15" shape="5104.14,1546.68 8576.38,3233.19"/>
        <lane id="whitefield_silk_2" index="2" speed="12.00" length="3860.15" shape="5102.74,1549.55 8574.98,3236.07"/>
    </edge>

    <junction id="etv_junction" type="priority" x="11100.00" y="4550.00" incLanes="silk_etv_0 silk_etv_1 silk_etv_2" intLanes=":etv_junction_0_0" shape="11100.00,4550.00 11104.43,4541.48 11100.00,4550.00">
        <request index="0" response="0" foes="0" cont="0"/>
    </junction>
    <junction id="marathalli" type="priority" x="100.00" y="50.00" incLanes="whitefield_marathalli_0 whitefield_marathalli_1 whitefield_marathalli_2 marathalli_ped_in_0" intLanes=":marathalli_0_0" shape="97.97,59.41 103.49,41.02 100.75,46.80 97.89,52.52">
        <request index="0" response="0" foes="0" cont="0"/>
    </junction>
    <junction id="marathalli_ped" type="dead_end" x="0.00" y="0.00" incLanes="marathalli_ped_out_0" intLanes="" shape="-0.00,-0.00 -1.43,2.86 -0.00,-0.00"/>
    <junction id="silk_board" type="priority" x="8600.00" y="3250.00" incLanes="etv_silk_0 etv_silk_1 etv_silk_2 whitefield_silk_0 whitefield_silk_1 whitefield_silk_2 silk_ped_in_0" intLanes=":silk_board_0_0 :silk_board_0_1 :silk_board_0_2 :silk_board_3_0 :silk_board_3_1 :silk_board_3_2" shape="8586.68,3253.89 8595.53,3236.86 8578.48,3228.87 8570.09,3246.14 8569.94,3246.80 8569.94,3253.20 8573.57,3252.98 8576.35,3252.52 8578.66,3252.10 8580.90,3252.00 8583.44,3252.50">
        <request index="0" response="000000" foes="000000" cont="0"/>
        <request index="1" response="000000" foes="000000" cont="0"/>
        <request index="2" response="000000" foes="000000" cont="0"/>
        <request index="3" response="000000" foes="000000" cont="0"/>
        <request index="4" response="000000" foes="000000" cont="0"/>
        <request index="5" response="000000" foes="000000" cont="0"/>
    </junction>
    <junction id="silk_ped" type="dead_end" x="8500.00" y="3250.00" incLanes="silk_ped_out_0" intLanes="" shape="8500.00,3250.00 8500.00,3253.20 8500.00,3250.00"/>
    <junction id="whitefield" type="priority" x="5100.00" y="1550.00" incLanes="silk_whitefield_0 silk_whitefield_1 silk_whitefield_2 whitefield_ped_in_0 marathalli_whitefield_0 marathalli_whitefield_1 marathalli_whitefield_2" intLanes=":whitefield_0_0 :whitefield_0_1 :whitefield_0_2 :whitefield_3_0 :whitefield_3_1 :whitefield_3_2" shape="5097.85,1559.63 5106.24,1542.36 5104.55,1541.16 5103.96,1540.41 5103.54,1539.55 5103.28,1538.59 5103.20,1537.52 5096.80,1537.52 5096.64,1538.30 5096.44,1538.53 5096.16,1538.66 5095.80,1538.68 5095.36,1538.59 5089.85,1556.98 5092.87,1557.79 5093.94,1558.07 5094.99,1558.39 5096.22,1558.88">
        <request index="0" response="000000" foes="000000" cont="0"/>
        <request index="1" response="000000" foes="000000" cont="0"/>
        <request index="2" response="000000" foes="000000" cont="0"/>
        <request index="3" response="000000" foes="000000" cont="0"/>
        <request index="4" response="000000" foes="000000" cont="0"/>
        <request index="5" response="000000" foes="000000" cont="0"/>
    </junction>
    <junction id="whitefield_ped" type="dead_end" x="5100.00" y="1450.00" incLanes="whitefield_ped_out_0" intLanes="" shape="5100.00,1450.00 5096.80,1450.00 5100.00,1450.00"/>

    <connection from="etv_silk" to="silk_whitefield" fromLane="0" toLane="0" via=":silk_board_0_0" dir="s" state="M"/>
    <connection from="etv_silk" to="silk_whitefield" fromLane="1" toLane="1" via=":silk_board_0_1" dir="s" state="M"/>
    <connection from="etv_silk" to="silk_whitefield" fromLane="2" toLane="2" via=":silk_board_0_2" dir="s" state="M"/>
    <connection from="marathalli_whitefield" to="whitefield_silk" fromLane="0" toLane="0" via=":whitefield_3_0" dir="s" state="M"/>
    <connection from="marathalli_whitefield" to="whitefield_silk" fromLane="1" toLane="1" via=":whitefield_3_1" dir="s" state="M"/>
    <connection from="marathalli_whitefield" to="whitefield_silk" fromLane="2" toLane="2" via=":whitefield_3_2" dir="s" state="M"/>
    <connection from="silk_etv" to="etv_silk" fromLane="2" toLane="2" via=":etv_junction_0_0" dir="t" state="M"/>
    <connection from="silk_whitefield" to="whitefield_marathalli" fromLane="0" toLane="0" via=":whitefield_0_0" dir="s" state="M"/>
    <connection from="silk_whitefield" to="whitefield_marathalli" fromLane="1" toLane="1" via=":whitefield_0_1" dir="s" state="M"/>
    <connection from="silk_whitefield" to="whitefield_marathalli" fromLane="2" toLane="2" via=":whitefield_0_2" dir="s" state="M"/>
    <connection from="whitefield_marathalli" to="marathalli_whitefield" fromLane="2" toLane="2" via=":marathalli_0_0" dir="t" state="M"/>
    <connection from="whitefield_silk" to="silk_etv" fromLane="0" toLane="0" via=":silk_board_3_0" dir="s" state="M"/>
    <connection from="whitefield_silk" to="silk_etv" fromLane="1" toLane="1" via=":silk_board_3_1" dir="s" state="M"/>
    <connection from="whitefield_silk" to="silk_etv" fromLane="2" toLane="2" via=":silk_board_3_2" dir="s" state="M"/>

    <connection from=":etv_junction_0" to="etv_silk" fromLane="0" toLane="2" dir="t" state="M"/>
    <connection from=":marathalli_0" to="marathalli_whitefield" fromLane="0" toLane="2" dir="t" state="M"/>
    <connection from=":silk_board_0" to="silk_whitefield" fromLane="0" toLane="0" dir="s" state="M"/>
    <connection from=":silk_board_0" to="silk_whitefield" fromLane="1" toLane="1" dir="s" state="M"/>
    <connection from=":silk_board_0" to="silk_whitefield" fromLane="2" toLane="2" dir="s" state="M"/>
    <connection from=":silk_board_3" to="silk_etv" fromLane="0" toLane="0" dir="s" state="M"/>
    <connection from=":silk_board_3" to="silk_etv" fromLane="1" toLane="1" dir="s" state="M"/>
    <connection from=":silk_board_3" to="silk_etv" fromLane="2" toLane="2" dir="s" state="M"/>
    <connection from=":whitefield_0" to="whitefield_marathalli" fromLane="0" toLane="0" dir="s" state="M"/>
    <connection from=":whitefield_0" to="whitefield_marathalli" fromLane="1" toLane="1" dir="s" state="M"/>
    <connection from=":whitefield_0" to="whitefield_marathalli" fromLane="2" toLane="2" dir="s" state="M"/>
    <connection from=":whitefield_3" to="whitefield_silk" fromLane="0" toLane="0" dir="s" state="M"/>
    <connection from=":whitefield_3" to="whitefield_silk" fromLane="1" toLane="1" dir="s" state="M"/>
    <connection from=":whitefield_3" to="whitefield_silk" fromLane="2" toLane="2" dir="s" state="M"/>

</net>
