<?xml version="1.0" encoding="UTF-8"?>
<edges xmlns:xsi="http://www.w3.org/2001/XMLSchema-instance" xsi:noNamespaceSchemaLocation="http://sumo.dlr.de/xsd/edges_file.xsd">
    <!-- Main highway from Marathalli to ETV -->
    <edge id="marathalli_etv_main" from="marathalli" to="whitefield" priority="10" numLanes="3" speed="15" length="5000"/>
    <edge id="whitefield_silk" from="whitefield" to="silk_board" priority="10" numLanes="3" speed="12" length="3500"/>
    <edge id="silk_etv" from="silk_board" to="etv" priority="10" numLanes="3" speed="10" length="2500"/>
    
    <!-- Return route -->
    <edge id="etv_silk" from="etv" to="silk_board" priority="10" numLanes="3" speed="10" length="2500"/>
    <edge id="silk_whitefield" from="silk_board" to="whitefield" priority="10" numLanes="3" speed="12" length="3500"/>
    <edge id="whitefield_marathalli" from="whitefield" to="marathalli" priority="10" numLanes="3" speed="15" length="5000"/>
    
    <!-- Side roads with pedestrian traffic -->
    <edge id="marathalli_side" from="marathalli" to="marathalli_ped" priority="5" numLanes="2" speed="8" length="1500"/>
    <edge id="whitefield_side" from="whitefield" to="whitefield_ped" priority="5" numLanes="2" speed="8" length="1200"/>
    <edge id="silk_side" from="silk_board" to="silk_ped" priority="5" numLanes="2" speed="8" length="1000"/>
</edges>
